!-Generator IDFEditor 1.50
!-Option SortedOrder

!-NOTE: All comments with '!-' are ignored by the IDFEditor and are generated automatically.
!-      Use '!' comments if they need to be retained when using the IDFEditor.


!-   ===========  ALL OBJECTS IN CLASS: VERSION ===========

Version,
    8.9;                     !- Version Identifier


!-   ===========  ALL OBJECTS IN CLASS: SIMULATIONCONTROL ===========

SimulationControl,
    Yes,                     !- Do Zone Sizing Calculation
    Yes,                     !- Do System Sizing Calculation
    Yes,                     !- Do Plant Sizing Calculation
    Yes,                     !- Run Simulation for Sizing Periods
    Yes,                     !- Run Simulation for Weather File Run Periods
    Yes;                     !- Do HVAC Sizing Simulation for Sizing Periods


!-   ===========  ALL OBJECTS IN CLASS: BUILDING ===========

Building,
    bldg-1,                  !- Name
    0,                       !- North Axis {deg}
    City,                    !- Terrain
    0.04,                    !- Loads Convergence Tolerance Value
    0.4,                     !- Temperature Convergence Tolerance Value {deltaC}
    FullExterior,            !- Solar Distribution
    25,                      !- Maximum Number of Warmup Days
    6;                       !- Minimum Number of Warmup Days


!-   ===========  ALL OBJECTS IN CLASS: SHADOWCALCULATION ===========

ShadowCalculation,
    AverageOverDaysInFrequency,  !- Calculation Method
    20,                      !- Calculation Frequency
    15000,                   !- Maximum Figures in Shadow Overlap Calculations
    SutherlandHodgman,       !- Polygon Clipping Algorithm
    SimpleSkyDiffuseModeling;!- Sky Diffuse Modeling Algorithm


!-   ===========  ALL OBJECTS IN CLASS: SURFACECONVECTIONALGORITHM:INSIDE ===========

SurfaceConvectionAlgorithm:Inside,
    TARP;                    !- Algorithm


!-   ===========  ALL OBJECTS IN CLASS: SURFACECONVECTIONALGORITHM:OUTSIDE ===========

SurfaceConvectionAlgorithm:Outside,
    DOE-2;                   !- Algorithm


!-   ===========  ALL OBJECTS IN CLASS: HEATBALANCEALGORITHM ===========

HeatBalanceAlgorithm,
    ConductionTransferFunction,  !- Algorithm
    2000;                    !- Surface Temperature Upper Limit {C}


!-   ===========  ALL OBJECTS IN CLASS: TIMESTEP ===========

Timestep,
    6;                       !- Number of Timesteps per Hour


!-   ===========  ALL OBJECTS IN CLASS: SITE:LOCATION ===========

Site:Location,
    Sri Lanka,               !- Name
    7.2931209,               !- Latitude {deg}
    80.6350327,              !- Longitude {deg}
    ,                        !- Time Zone {hr}
    690;                     !- Elevation {m}


!-   ===========  ALL OBJECTS IN CLASS: SIZINGPERIOD:DESIGNDAY ===========

SizingPeriod:DesignDay,
    Summer Design Day in HVLK_2 (O1-O1:31-12) Jul,  !- Name
    7,                       !- Month
    15,                      !- Day of Month
    SummerDesignDay,         !- Day Type
    31.1,                    !- Maximum Dry-Bulb Temperature {C}
    4,                       !- Daily Dry-Bulb Temperature Range {deltaC}
    ,                        !- Dry-Bulb Temperature Range Modifier Type
    ,                        !- Dry-Bulb Temperature Range Modifier Day Schedule Name
    WetBulb,                 !- Humidity Condition Type
    26.4,                    !- Wetbulb or DewPoint at Maximum Dry-Bulb {C}
    ,                        !- Humidity Condition Day Schedule Name
    ,                        !- Humidity Ratio at Maximum Dry-Bulb {kgWater/kgDryAir}
    ,                        !- Enthalpy at Maximum Dry-Bulb {J/kg}
    ,                        !- Daily Wet-Bulb Temperature Range {deltaC}
    101216.9,                !- Barometric Pressure {Pa}
    0,                       !- Wind Speed {m/s}
    0,                       !- Wind Direction {deg}
    No,                      !- Rain Indicator
    No,                      !- Snow Indicator
    No,                      !- Daylight Saving Time Indicator
    ASHRAEClearSky,          !- Solar Model Indicator
    ,                        !- Beam Solar Day Schedule Name
    ,                        !- Diffuse Solar Day Schedule Name
    ,                        !- ASHRAE Clear Sky Optical Depth for Beam Irradiance (taub) {dimensionless}
    ,                        !- ASHRAE Clear Sky Optical Depth for Diffuse Irradiance (taud) {dimensionless}
    0.98;                    !- Sky Clearness

SizingPeriod:DesignDay,
    Summer Design Day in HVLK_2 (O1-O1:31-12) Aug,  !- Name
    8,                       !- Month
    15,                      !- Day of Month
    SummerDesignDay,         !- Day Type
    31.2,                    !- Maximum Dry-Bulb Temperature {C}
    4.2,                     !- Daily Dry-Bulb Temperature Range {deltaC}
    ,                        !- Dry-Bulb Temperature Range Modifier Type
    ,                        !- Dry-Bulb Temperature Range Modifier Day Schedule Name
    WetBulb,                 !- Humidity Condition Type
    26,                      !- Wetbulb or DewPoint at Maximum Dry-Bulb {C}
    ,                        !- Humidity Condition Day Schedule Name
    ,                        !- Humidity Ratio at Maximum Dry-Bulb {kgWater/kgDryAir}
    ,                        !- Enthalpy at Maximum Dry-Bulb {J/kg}
    ,                        !- Daily Wet-Bulb Temperature Range {deltaC}
    101216.9,                !- Barometric Pressure {Pa}
    0,                       !- Wind Speed {m/s}
    0,                       !- Wind Direction {deg}
    No,                      !- Rain Indicator
    No,                      !- Snow Indicator
    No,                      !- Daylight Saving Time Indicator
    ASHRAEClearSky,          !- Solar Model Indicator
    ,                        !- Beam Solar Day Schedule Name
    ,                        !- Diffuse Solar Day Schedule Name
    ,                        !- ASHRAE Clear Sky Optical Depth for Beam Irradiance (taub) {dimensionless}
    ,                        !- ASHRAE Clear Sky Optical Depth for Diffuse Irradiance (taud) {dimensionless}
    0.98;                    !- Sky Clearness

SizingPeriod:DesignDay,
    Summer Design Day in HVLK_2 (O1-O1:31-12) Sep,  !- Name
    9,                       !- Month
    15,                      !- Day of Month
    SummerDesignDay,         !- Day Type
    31.2,                    !- Maximum Dry-Bulb Temperature {C}
    4.8,                     !- Daily Dry-Bulb Temperature Range {deltaC}
    ,                        !- Dry-Bulb Temperature Range Modifier Type
    ,                        !- Dry-Bulb Temperature Range Modifier Day Schedule Name
    WetBulb,                 !- Humidity Condition Type
    25.9,                    !- Wetbulb or DewPoint at Maximum Dry-Bulb {C}
    ,                        !- Humidity Condition Day Schedule Name
    ,                        !- Humidity Ratio at Maximum Dry-Bulb {kgWater/kgDryAir}
    ,                        !- Enthalpy at Maximum Dry-Bulb {J/kg}
    ,                        !- Daily Wet-Bulb Temperature Range {deltaC}
    101216.9,                !- Barometric Pressure {Pa}
    0,                       !- Wind Speed {m/s}
    0,                       !- Wind Direction {deg}
    No,                      !- Rain Indicator
    No,                      !- Snow Indicator
    No,                      !- Daylight Saving Time Indicator
    ASHRAEClearSky,          !- Solar Model Indicator
    ,                        !- Beam Solar Day Schedule Name
    ,                        !- Diffuse Solar Day Schedule Name
    ,                        !- ASHRAE Clear Sky Optical Depth for Beam Irradiance (taub) {dimensionless}
    ,                        !- ASHRAE Clear Sky Optical Depth for Diffuse Irradiance (taud) {dimensionless}
    0.98;                    !- Sky Clearness

SizingPeriod:DesignDay,
    Winter Design Day in HVLK_2 (O1-O1:31-12),  !- Name
    1,                       !- Month
    15,                      !- Day of Month
    WinterDesignDay,         !- Day Type
    20.9,                    !- Maximum Dry-Bulb Temperature {C}
    0,                       !- Daily Dry-Bulb Temperature Range {deltaC}
    ,                        !- Dry-Bulb Temperature Range Modifier Type
    ,                        !- Dry-Bulb Temperature Range Modifier Day Schedule Name
    WetBulb,                 !- Humidity Condition Type
    20.9,                    !- Wetbulb or DewPoint at Maximum Dry-Bulb {C}
    ,                        !- Humidity Condition Day Schedule Name
    ,                        !- Humidity Ratio at Maximum Dry-Bulb {kgWater/kgDryAir}
    ,                        !- Enthalpy at Maximum Dry-Bulb {J/kg}
    ,                        !- Daily Wet-Bulb Temperature Range {deltaC}
    101216.9,                !- Barometric Pressure {Pa}
    9.6,                     !- Wind Speed {m/s}
    0,                       !- Wind Direction {deg}
    No,                      !- Rain Indicator
    No,                      !- Snow Indicator
    No,                      !- Daylight Saving Time Indicator
    ,                        !- Solar Model Indicator
    ,                        !- Beam Solar Day Schedule Name
    ,                        !- Diffuse Solar Day Schedule Name
    ,                        !- ASHRAE Clear Sky Optical Depth for Beam Irradiance (taub) {dimensionless}
    ,                        !- ASHRAE Clear Sky Optical Depth for Diffuse Irradiance (taud) {dimensionless}
    0;                       !- Sky Clearness


!-   ===========  ALL OBJECTS IN CLASS: RUNPERIOD ===========

RunPeriod,
    AnnualSim,               !- Name
    1,                       !- Begin Month
    1,                       !- Begin Day of Month
    12,                      !- End Month
    31,                      !- End Day of Month
    Sunday,                  !- Day of Week for Start Day
    Yes,                     !- Use Weather File Holidays and Special Days
    Yes,                     !- Use Weather File Daylight Saving Period
    Yes,                     !- Apply Weekend Holiday Rule
    Yes,                     !- Use Weather File Rain Indicators
    Yes,                     !- Use Weather File Snow Indicators
    1.0000;                  !- Number of Times Runperiod to be Repeated


!-   ===========  ALL OBJECTS IN CLASS: SITE:GROUNDTEMPERATURE:BUILDINGSURFACE ===========

Site:GroundTemperature:BuildingSurface,
    19.527,                  !- January Ground Temperature {C}
    19.502,                  !- February Ground Temperature {C}
    19.536,                  !- March Ground Temperature {C}
    19.598,                  !- April Ground Temperature {C}
    20.002,                  !- May Ground Temperature {C}
    21.64,                   !- June Ground Temperature {C}
    22.225,                  !- July Ground Temperature {C}
    22.375,                  !- August Ground Temperature {C}
    21.449,                  !- September Ground Temperature {C}
    20.121,                  !- October Ground Temperature {C}
    19.802,                  !- November Ground Temperature {C}
    19.633;                  !- December Ground Temperature {C}



!-   ===========  ALL OBJECTS IN CLASS: GLOBALGEOMETRYRULES ===========

GlobalGeometryRules,
    LowerLeftCorner,         !- Starting Vertex Position
    CounterClockWise,        !- Vertex Entry Direction
    Relative;                !- Coordinate System

!-   ===========  ALL OBJECTS IN CLASS: OUTPUT:SURFACES:LIST ===========

Output:Surfaces:List,
    Details,                 !- Report Type
    IDF;                     !- Report Specifications


!-   ===========  ALL OBJECTS IN CLASS: OUTPUT:SURFACES:DRAWING ===========

Output:Surfaces:Drawing,
    VRML,                    !- Report Type
    Triangulate3DFace;       !- Report Specifications 1


!-   ===========  ALL OBJECTS IN CLASS: OUTPUT:TABLE:SUMMARYREPORTS ===========

Output:Table:SummaryReports,
    AnnualBuildingUtilityPerformanceSummary,  !- Report 1 Name
    ClimaticDataSummary,     !- Report 2 Name
    EnvelopeSummary,         !- Report 3 Name
    AdaptiveComfortSummary;  !- Report 4 Name


!-   ===========  ALL OBJECTS IN CLASS: OUTPUTCONTROL:TABLE:STYLE ===========

OutputControl:Table:Style,
    CommaAndHTML,            !- Column Separator
    JtoKWH;                  !- Unit Conversion


!-   ===========  ALL OBJECTS IN CLASS: OUTPUT:VARIABLE ===========

Output:Variable,
    *,                       !- Key Value
    Zone Ideal Loads Zone Total Cooling Energy,  !- Variable Name
    Monthly;                 !- Reporting Frequency

Output:Variable,
    *,                       !- Key Value
    Zone Mean Air Temperature,  !- Variable Name
    hourly;                  !- Reporting Frequency

Output:Variable,
    *,                       !- Key Value
    Zone Operative Temperature,  !- Variable Name
    hourly;                  !- Reporting Frequency

Output:Variable,
    *,                       !- Key Value
    Site Outdoor Air Drybulb Temperature,  !- Variable Name
    hourly;                  !- Reporting Frequency

Output:Variable,
    *,                       !- Key Value
    Zone Ideal Loads Zone Total Heating Energy,  !- Variable Name
    Monthly;                 !- Reporting Frequency

Output:Variable,
    *,                       !- Key Value
    Zone Air Relative Humidity,  !- Variable Name
    Hourly;                  !- Reporting Frequency


!-   ===========  ALL OBJECTS IN CLASS: OUTPUT:METER ===========

Output:Meter,
    Zone Ideal Loads Zone Total Cooling Energy,  !- Key Name
    Monthly;                 !- Reporting Frequency


!-   ===========  ALL OBJECTS IN CLASS: OUTPUT:SQLITE ===========

Output:SQLite,
    Simple;                  !- Option Type


!-   ===========  ALL OBJECTS IN CLASS: OUTPUT:DIAGNOSTICS ===========

Output:Diagnostics,
    DisplayAllWarnings,      !- Key 1
    DoNotMirrorDetachedShading;  !- Key 2!-Generator IDFEditor 1.50
!-Option SortedOrder

!-NOTE: All comments with '!-' are ignored by the IDFEditor and are generated automatically.
!-      Use '!' comments if they need to be retained when using the IDFEditor.


!-   ===========  ALL OBJECTS IN CLASS: SCHEDULETYPELIMITS ===========

ScheduleTypeLimits,
    Any Number;              !- Name

ScheduleTypeLimits,
    Fraction,                !- Name
    0,                       !- Lower Limit Value
    1,                       !- Upper Limit Value
    CONTINUOUS;              !- Numeric Type

ScheduleTypeLimits,
    Temperature,             !- Name
    -60,                     !- Lower Limit Value
    200,                     !- Upper Limit Value
    CONTINUOUS;              !- Numeric Type


!-   ===========  ALL OBJECTS IN CLASS: SCHEDULE:COMPACT ===========

Schedule:Compact,
    BIM - Bed RoomHeatingSP_sch,  !- Name
    Temperature,             !- Schedule Type Limits Name
    Through: 31 Dec,         !- Field 1
    For: AllDays,            !- Field 2
    Until: 07:00,            !- Field 3
    20,                      !- Field 4
    Until: 13:00,            !- Field 5
    5,                       !- Field 6
    Until: 24:00,            !- Field 7
    20;                      !- Field 8

Schedule:Compact,
    BIM - Living RoomHeatingSP_sch,  !- Name
    Temperature,             !- Schedule Type Limits Name
    Through: 31 Dec,         !- Field 1
    For: AllDays,            !- Field 2
    Until: 13:00,            !- Field 3
    5,                       !- Field 4
    Until: 22:00,            !- Field 5
    20,                      !- Field 6
    Until: 24:00,            !- Field 7
    5;                       !- Field 8

Schedule:Compact,
    BIM - Bed RoomCoolingSP_sch,  !- Name
    Temperature,             !- Schedule Type Limits Name
    Through: 31 Dec,         !- Field 1
    For: AllDays,            !- Field 2
    Until: 07:00,            !- Field 3
    29.5,                    !- Field 4
    Until: 13:00,            !- Field 5
    55,                      !- Field 6
    Until: 24:00,            !- Field 7
    29.5;                    !- Field 8

Schedule:Compact,
    BIM - Living RoomCoolingSP_sch,  !- Name
    Temperature,             !- Schedule Type Limits Name
    Through: 31 Dec,         !- Field 1
    For: AllDays,            !- Field 2
    Until: 13:00,            !- Field 3
    55,                      !- Field 4
    Until: 22:00,            !- Field 5
    29.5,                    !- Field 6
    Until: 24:00,            !- Field 7
    55;                      !- Field 8

Schedule:Compact,
    Activity_Sch,            !- Name
    Any Number,              !- Schedule Type Limits Name
    Through: 12/31,          !- Field 1
    For: AllDays,            !- Field 2
    Until: 24:00,            !- Field 3
    100;                     !- Field 4

Schedule:Compact,
    BIM - Bed Roomoccupancy_sch,  !- Name
    Fraction,                !- Schedule Type Limits Name
    Through: 31 Dec,         !- Field 1
    For: AllDays,            !- Field 2
    Until: 07:00,            !- Field 3
    1,                       !- Field 4
    Until: 13:00,            !- Field 5
    0,                       !- Field 6
    Until: 24:00,            !- Field 7
    1;                       !- Field 8

Schedule:Compact,
    BIM - Living Roomoccupancy_sch,  !- Name
    Fraction,                !- Schedule Type Limits Name
    Through: 31 Dec,         !- Field 1
    For: AllDays,            !- Field 2
    Until: 13:00,            !- Field 3
    0,                       !- Field 4
    Until: 22:00,            !- Field 5
    1,                       !- Field 6
    Until: 24:00,            !- Field 7
    0;                       !- Field 8

Schedule:Compact,
    BIM - Other Roomoccupancy_sch,  !- Name
    Fraction,                !- Schedule Type Limits Name
    Through: 31 Dec,         !- Field 1
    For: AllDays,            !- Field 2
    Until: 13:00,            !- Field 3
    0,                       !- Field 4
    Until: 22:00,            !- Field 5
    1,                       !- Field 6
    Until: 24:00,            !- Field 7
    0;                       !- Field 8

Schedule:Compact,
    BIM - Bed Roomlighting_sch,  !- Name
    Fraction,                !- Schedule Type Limits Name
    Through: 31 Dec,         !- Field 1
    For: AllDays,            !- Field 2
    Until: 05:00,            !- Field 3
    0,                       !- Field 4
    Until: 07:00,            !- Field 5
    1,                       !- Field 6
    Until: 18:00,            !- Field 7
    0,                       !- Field 8
    Until: 24:00,            !- Field 8
    1;                       !- Field 10

Schedule:Compact,
    BIM - Living Roomlighting_sch,  !- Name
    Fraction,                !- Schedule Type Limits Name
    Through: 31 Dec,         !- Field 1
    For: AllDays,            !- Field 2
    Until: 18:00,            !- Field 5
    0,                       !- Field 6
    Until: 24:00,            !- Field 7
    1;                       !- Field 8

Schedule:Compact,
    BIM - Bed Roomequipment_sch,  !- Name
    Fraction,                !- Schedule Type Limits Name
    Through: 31 Dec,         !- Field 1
    For: AllDays,            !- Field 2
    Until: 05:00,            !- Field 3
    0,                       !- Field 4
    Until: 07:00,            !- Field 5
    1,                       !- Field 6
    Until: 18:00,            !- Field 7
    0,                       !- Field 8
    Until: 24:00,            !- Field 8
    1;                       !- Field 10

Schedule:Compact,
    BIM - Living Roomequipment_sch,  !- Name
    Fraction,                !- Schedule Type Limits Name
    Through: 31 Dec,         !- Field 1
    For: AllDays,            !- Field 2
    Until: 05:00,            !- Field 3
    0.2,                       !- Field 4
    Until: 07:00,            !- Field 5
    0.4,                       !- Field 6
    Until: 20:00,            !- Field 7
    0.3,                       !- Field 8
    Until: 24:00,            !- Field 8
    1;                       !- Field 10

Schedule:Compact,
    BIM - Other Roomequipment_sch,  !- Name
    Fraction,                !- Schedule Type Limits Name
    Through: 31 Dec,         !- Field 1
    For: AllDays,            !- Field 2
    Until: 05:00,            !- Field 3
    0.2,                       !- Field 4
    Until: 07:00,            !- Field 5
    0.4,                       !- Field 6
    Until: 20:00,            !- Field 7
    0.3,                       !- Field 8
    Until: 24:00,            !- Field 8
    1;                       !- Field 10

Schedule:Compact,
    BIM - Other Roomlighting_sch,  !- Name
    Fraction,                !- Schedule Type Limits Name
    Through: 31 Dec,         !- Field 1
    For: AllDays,            !- Field 2
    Until: 18:00,            !- Field 5
    0,                       !- Field 6
    Until: 24:00,            !- Field 7
    1;                       !- Field 8

Schedule:Compact,
    24X7_on,                 !- Name
    Fraction,                !- Schedule Type Limits Name
    Through: 31 Dec,         !- Field 1
    For: AllDays,            !- Field 2
    Until: 24:00,            !- Field 3
    1;                       !- Field 4

Schedule:Compact,
    24X7_off,                !- Name
    Fraction,                !- Schedule Type Limits Name
    Through: 31 Dec,         !- Field 1
    For: AllDays,            !- Field 2
    Until: 24:00,            !- Field 3
    0;                       !- Field 4


!-   ===========  ALL OBJECTS IN CLASS: HVACTEMPLATE:THERMOSTAT ===========

HVACTemplate:Thermostat,
    BIM - Bed RoomDualSP,    !- Name
    BIM - Bed RoomHeatingSP_sch,  !- Heating Setpoint Schedule Name
    ,                        !- Constant Heating Setpoint {C}
    BIM - Bed RoomCoolingSP_sch,  !- Cooling Setpoint Schedule Name
    ;                        !- Constant Cooling Setpoint {C}

HVACTemplate:Thermostat,
    BIM - Living RoomDualSP, !- Name
    BIM - Living RoomHeatingSP_sch,  !- Heating Setpoint Schedule Name
    ,                        !- Constant Heating Setpoint {C}
    BIM - Living RoomCoolingSP_sch,  !- Cooling Setpoint Schedule Name
    ;                        !- Constant Cooling Setpoint {C}


            Construction,
                aim5190, !- Name
                aim5195, aim5202, aim5209, aim5216; !- Outside Layer
            

            Construction,
                aim5224, !- Name
                aim5229; !- Outside Layer
            

            Construction,
                aim5237, !- Name
                aim5242; !- Outside Layer
            

            Construction,
                aim5250, !- Name
                aim5255, aim5262, aim5255; !- Outside Layer
            

            Construction,
                aim5271, !- Name
                aim5274; !- Outside Layer
            

            Construction,
                aim5279, !- Name
                aim5255, aim5262, aim5255; !- Outside Layer
            

            Construction,
                aim5288, !- Name
                aim5216, aim5209, aim5202, aim5195; !- Outside Layer
            

        Construction,
            aim5298, !- Name
            Windows : Green_Window_v2 : 3-650x1250mm(6mm-Single); !- Outside Layer
        

        Construction,
            aim5302, !- Name
            Windows : Green_Window_v2 : 3-1290x1750mm(6mm-Single); !- Outside Layer
        

            BuildingSurface:Detailed,
                aim5306,          !- Name
                Wall,        !- Surface Type
                aim5190,   !- Construction Name
                aim0546,           !- Zone Name
                Outdoors,           !- Outside Boundary Condition
                ,     !- Outside Boundary Condition Object
                SunExposed,                      !- Sun Exposure
                WindExposed,                      !- Wind Exposure
                0,                      !- View Factor to Ground
                4,        !- Number of Vertices
                -18.1485627, 8.0600889, 54.0, -15.9553694, 10.2532823, 54.0, -15.9553694, 10.2532823, 56.7, -18.1485627, 8.0600889, 56.7;        !- Vertex List
        

            BuildingSurface:Detailed,
                aim5327,          !- Name
                Wall,        !- Surface Type
                aim5190,   !- Construction Name
                aim0546,           !- Zone Name
                Outdoors,           !- Outside Boundary Condition
                ,     !- Outside Boundary Condition Object
                SunExposed,                      !- Sun Exposure
                WindExposed,                      !- Wind Exposure
                0,                      !- View Factor to Ground
                4,        !- Number of Vertices
                -19.6629026, 9.5744288, 54.0, -18.1485627, 8.0600889, 54.0, -18.1485627, 8.0600889, 56.7, -19.6629026, 9.5744288, 56.7;        !- Vertex List
        

            BuildingSurface:Detailed,
                aim5348,          !- Name
                Roof,        !- Surface Type
                aim5237,   !- Construction Name
                aim0546,           !- Zone Name
                Adiabatic,           !- Outside Boundary Condition
                ,     !- Outside Boundary Condition Object
                SunExposed,                      !- Sun Exposure
                WindExposed,                      !- Wind Exposure
                0,                      !- View Factor to Ground
                4,        !- Number of Vertices
                -19.6629026, 9.5744288, 56.7, -18.1485627, 8.0600889, 56.7, -15.9553694, 10.2532823, 56.7, -17.4697093, 11.7676221, 56.7;        !- Vertex List
        

            BuildingSurface:Detailed,
                aim5359,          !- Name
                Floor,        !- Surface Type
                aim5237,   !- Construction Name
                aim0546,           !- Zone Name
                Adiabatic,           !- Outside Boundary Condition
                ,     !- Outside Boundary Condition Object
                NoSun,                      !- Sun Exposure
                NoWind,                      !- Wind Exposure
                0,                      !- View Factor to Ground
                4,        !- Number of Vertices
                -19.6629026, 9.5744288, 54.0, -17.4697093, 11.7676221, 54.0, -15.9553694, 10.2532823, 54.0, -18.1485627, 8.0600889, 54.0;        !- Vertex List
        

            BuildingSurface:Detailed,
                aim5370,          !- Name
                Wall,        !- Surface Type
                aim5250,   !- Construction Name
                aim0546,           !- Zone Name
                Zone,           !- Outside Boundary Condition
                aim1244,     !- Outside Boundary Condition Object
                NoSun,                      !- Sun Exposure
                NoWind,                      !- Wind Exposure
                0,                      !- View Factor to Ground
                4,        !- Number of Vertices
                -17.4697093, 11.7676221, 54.0, -17.4697093, 11.7676221, 56.7, -15.9553694, 10.2532823, 56.7, -15.9553694, 10.2532823, 54.0;        !- Vertex List
        

            BuildingSurface:Detailed,
                aim5382,          !- Name
                Wall,        !- Surface Type
                aim5250,   !- Construction Name
                aim0546,           !- Zone Name
                Zone,           !- Outside Boundary Condition
                aim4409,     !- Outside Boundary Condition Object
                NoSun,                      !- Sun Exposure
                NoWind,                      !- Wind Exposure
                0,                      !- View Factor to Ground
                4,        !- Number of Vertices
                -19.6629026, 9.5744288, 54.0, -19.6629026, 9.5744288, 56.7, -17.4697093, 11.7676221, 56.7, -17.4697093, 11.7676221, 54.0;        !- Vertex List
        

            BuildingSurface:Detailed,
                aim5394,          !- Name
                Wall,        !- Surface Type
                aim5190,   !- Construction Name
                aim0600,           !- Zone Name
                Outdoors,           !- Outside Boundary Condition
                ,     !- Outside Boundary Condition Object
                SunExposed,                      !- Sun Exposure
                WindExposed,                      !- Wind Exposure
                0,                      !- View Factor to Ground
                4,        !- Number of Vertices
                -16.3444505, 6.1120097, 54.0, -14.9396213, 4.7071805, 54.0, -14.9396213, 4.7071805, 56.7, -16.3444505, 6.1120097, 56.7;        !- Vertex List
        

            BuildingSurface:Detailed,
                aim5415,          !- Name
                Wall,        !- Surface Type
                aim5190,   !- Construction Name
                aim0600,           !- Zone Name
                Outdoors,           !- Outside Boundary Condition
                ,     !- Outside Boundary Condition Object
                SunExposed,                      !- Sun Exposure
                WindExposed,                      !- Wind Exposure